File D:\mypythons\jupyters\phd\one_storey_frame\sap\01_sap_auto.$2k was saved on 3/2/19 at 15:54:09
 
TABLE:  "ACTIVE DEGREES OF FREEDOM"
   UX=Yes   UY=No   UZ=Yes   RX=No   RY=Yes   RZ=No
 
TABLE:  "ANALYSIS OPTIONS"
   Solver=Advanced   SolverProc=Auto   Force32Bit=No   StiffCase=None   GeomMod=No
 
TABLE:  "AUTO WAVE 3 - WAVE CHARACTERISTICS - GENERAL"
   WaveChar=Default   WaveType="From Theory"   KinFactor=1   SWaterDepth=1800   WaveHeight=720   WavePeriod=12   WaveTheory=Linear
 
TABLE:  "BRIDGE DESIGN PREFERENCES - AASHTOLRFD07"
   HingeOpt="Auto: AASHTO/Caltrans Hinge"
 
TABLE:  "BRIDGE PREFERENCES"
   NorthAngle=90   MaxDiscCurv=1
 
TABLE:  "CASE - MODAL 1 - GENERAL"
   Case=MODAL   ModeType=Eigen   MaxNumModes=12   MinNumModes=1   EigenShift=0   EigenCutoff=0   EigenTol=0.000000001   AutoShift=Yes
 
TABLE:  "CASE - STATIC 1 - LOAD ASSIGNMENTS"
   Case=G   LoadType="Load pattern"   LoadName=G   LoadSF=1
   Case=Q   LoadType="Load pattern"   LoadName=Q   LoadSF=1
   Case=E   LoadType="Load pattern"   LoadName=E   LoadSF=1
   Case=PUSHGRAV   LoadType="Load pattern"   LoadName=G   LoadSF=1
   Case=PUSHGRAV   LoadType="Load pattern"   LoadName=Q   LoadSF=0.3
   Case=PUSHOVER   LoadType="Load pattern"   LoadName=E   LoadSF=1
 
TABLE:  "CASE - STATIC 2 - NONLINEAR LOAD APPLICATION"
   Case=PUSHGRAV   LoadApp="Full Load"   MonitorDOF=U1   MonitorJt=2
   Case=PUSHOVER   LoadApp="Displ Ctrl"   DisplType=Conjugate   TargetDispl=0.4   MonitorDOF=U1   MonitorJt=2
 
TABLE:  "CASE - STATIC 4 - NONLINEAR PARAMETERS"
   Case=PUSHGRAV   Unloading="Unload Entire"   GeoNonLin=None   ResultsSave="Final State"   MaxTotal=200   MaxNull=50   MaxIterCS=10   MaxIterNR=40   ItConvTol=0.0001   UseEvStep=Yes   EvLumpTol=0.01   LSPerIter=20   LSTol=0.1 _
        LSStepFact=1.618   FrameTC=Yes   FrameHinge=Yes   CableTC=Yes   LinkTC=Yes   LinkOther=Yes   TFMaxIter=10   TFTol=0.01   TFAccelFact=1   TFNoStop=No
   Case=PUSHOVER   Unloading="Unload Entire"   GeoNonLin=None   ResultsSave="Multiple States"   MinNumState=300   MaxNumState=1000   PosIncOnly=Yes   MaxTotal=1000   MaxNull=100   MaxIterCS=10   MaxIterNR=40   ItConvTol=0.0001 _
        UseEvStep=Yes   EvLumpTol=0.001   LSPerIter=20   LSTol=0.1   LSStepFact=1.618   FrameTC=Yes   FrameHinge=Yes   CableTC=Yes   LinkTC=Yes   LinkOther=Yes   TFMaxIter=10   TFTol=0.01   TFAccelFact=1   TFNoStop=No
 
TABLE:  "COMBINATION DEFINITIONS"
   ComboName=G+0.3Q   ComboType="Linear Add"   AutoDesign=No   CaseName=G   ScaleFactor=1   SteelDesign=None   ConcDesign=None   AlumDesign=None   ColdDesign=None
   ComboName=G+0.3Q   CaseName=Q   ScaleFactor=0.3
 
TABLE:  "CONNECTIVITY - FRAME"
   Frame=1   JointI=1   JointJ=2   IsCurved=No
   Frame=2   JointI=3   JointJ=4   IsCurved=No
   Frame=3   JointI=2   JointJ=4   IsCurved=No
 
TABLE:  "CONSTRAINT DEFINITIONS - DIAPHRAGM"
   Name=DIAPH1   CoordSys=GLOBAL   Axis=Z   MultiLevel=No
 
TABLE:  "COORDINATE SYSTEMS"
   Name=GLOBAL   Type=Cartesian   X=0   Y=0   Z=0   AboutZ=0   AboutY=0   AboutX=0
 
TABLE:  "DATABASE DOCUMENTATION"
 
TABLE:  "DATABASE FORMAT TYPES"
   UnitsCurr=Yes   OverrideE=No
 
TABLE:  "FRAME AUTO MESH ASSIGNMENTS"
   Frame=1   AutoMesh=Yes   AtJoints=Yes   AtFrames=No   NumSegments=0   MaxLength=0   MaxDegrees=0
   Frame=2   AutoMesh=Yes   AtJoints=Yes   AtFrames=No   NumSegments=0   MaxLength=0   MaxDegrees=0
   Frame=3   AutoMesh=Yes   AtJoints=Yes   AtFrames=No   NumSegments=0   MaxLength=0   MaxDegrees=0
 
TABLE:  "FRAME DESIGN PROCEDURES"
   Frame=1   DesignProc="From Material"
   Frame=2   DesignProc="From Material"
   Frame=3   DesignProc="From Material"
 
TABLE:  "FRAME HINGE ASSIGNS 04 - AUTO FEMA 356 - CONCRETE BEAM"
   Frame=3   CompType=Primary   DOF=M3   VFrom=Case   VCase=G+0.3Q   Conforming=Yes   RatioFrom=Design   BeyondE=Extrapolated   DistType=RelDist   RelDist=0   AbsDist=0   ActualDist=0
   Frame=3   CompType=Primary   DOF=M3   VFrom=Case   VCase=G+0.3Q   Conforming=Yes   RatioFrom=Design   BeyondE=Extrapolated   DistType=RelDist   RelDist=1   AbsDist=5   ActualDist=5
 
TABLE:  "FRAME HINGE ASSIGNS 05 - AUTO FEMA 356 - CONCRETE COLUMN"
   Frame=1   CompType=Primary   DOF=M3   PandVFrom=Case   PandVCase=G+0.3Q   Conforming=Yes   BeyondE=Extrapolated   DistType=RelDist   RelDist=0   AbsDist=0   ActualDist=0
   Frame=1   CompType=Primary   DOF=M3   PandVFrom=Case   PandVCase=G+0.3Q   Conforming=Yes   BeyondE=Extrapolated   DistType=RelDist   RelDist=1   AbsDist=3   ActualDist=3
   Frame=2   CompType=Primary   DOF=M3   PandVFrom=Case   PandVCase=G+0.3Q   Conforming=Yes   BeyondE=Extrapolated   DistType=RelDist   RelDist=0   AbsDist=0   ActualDist=0
   Frame=2   CompType=Primary   DOF=M3   PandVFrom=Case   PandVCase=G+0.3Q   Conforming=Yes   BeyondE=Extrapolated   DistType=RelDist   RelDist=1   AbsDist=3   ActualDist=3
 
TABLE:  "FRAME LOADS - DISTRIBUTED"
   Frame=3   LoadPat=G   CoordSys=GLOBAL   Type=Force   Dir=Gravity   DistType=RelDist   RelDistA=0   RelDistB=1   AbsDistA=0   AbsDistB=5   FOverLA=20   FOverLB=20
   Frame=3   LoadPat=Q   CoordSys=GLOBAL   Type=Force   Dir=Gravity   DistType=RelDist   RelDistA=0   RelDistB=1   AbsDistA=0   AbsDistB=5   FOverLA=10   FOverLB=10
 
TABLE:  "FRAME OUTPUT STATION ASSIGNMENTS"
   Frame=1   StationType=MinNumSta   MinNumSta=3   AddAtElmInt=Yes   AddAtPtLoad=Yes
   Frame=2   StationType=MinNumSta   MinNumSta=3   AddAtElmInt=Yes   AddAtPtLoad=Yes
   Frame=3   StationType=MaxStaSpcg   MaxStaSpcg=0.5   AddAtElmInt=Yes   AddAtPtLoad=Yes
 
TABLE:  "FRAME SECTION ASSIGNMENTS"
   Frame=1   AutoSelect=N.A.   AnalSect=COLUMN   MatProp=Default
   Frame=2   AutoSelect=N.A.   AnalSect=COLUMN   MatProp=Default
   Frame=3   AutoSelect=N.A.   AnalSect=BEAM   MatProp=Default
 
TABLE:  "FRAME SECTION PROPERTIES 01 - GENERAL"
   SectionName=BEAM   Material=CONC   Shape=Tee   t3=0.7   t2=1.2   tf=0.15   tw=0.25   Area=0.3175   TorsConst=4.04967708333333E-03   I33=1.33528584317585E-02   I22=2.23161458333333E-02   AS2=0.175   AS3=0.15   S33=2.82047903672904E-02 _
        S22=3.71935763888889E-02   Z33=5.09361979166667E-02   Z22=0.06259375   R33=0.205076198104901   R22=0.265117093924201   Color=Red   FromFile=No   AMod=1   A2Mod=1   A3Mod=1   JMod=0.1   I2Mod=0.5   I3Mod=0.5   MMod=0   WMod=0   Notes="Added 1/3/2019 3:34:17 μμ"
   SectionName=COLUMN   Material=CONC   Shape=Rectangular   t3=0.4   t2=0.4   Area=0.16   TorsConst=3.60533333333333E-03   I33=2.13333333333333E-03   I22=2.13333333333333E-03   AS2=0.133333333333333   AS3=0.133333333333333 _
        S33=1.06666666666667E-02   S22=1.06666666666667E-02   Z33=0.016   Z22=0.016   R33=0.115470053837925   R22=0.115470053837925   Color=Green   FromFile=No   AMod=1   A2Mod=1   A3Mod=1   JMod=0.1   I2Mod=1   I3Mod=1   MMod=0   WMod=0   Notes="Added 1/3/2019 3:27:21 μμ"
 
TABLE:  "FRAME SECTION PROPERTIES 02 - CONCRETE COLUMN"
   SectionName=COLUMN   RebarMatL=B500c   RebarMatC=B500c   ReinfConfig=Rectangular   LatReinf=Ties   Cover=0.03   NumBars3Dir=4   NumBars2Dir=4   BarSizeL=18d   BarSizeC=10d   SpacingC=0.1   NumCBars2=4   NumCBars3=4   ReinfType=Check
 
TABLE:  "FRAME SECTION PROPERTIES 03 - CONCRETE BEAM"
   SectionName=BEAM   RebarMatL=B500c   RebarMatC=B500c   TopCover=0.047   BotCover=0.047   TopLeftArea=0.000462   TopRghtArea=0.000462   BotLeftArea=0.000308   BotRghtArea=0.000308
 
TABLE:  "FUNCTION - PLOT FUNCTIONS"
   PlotFunc="Input Energy"   Type=Energy   Component=Input   Mode=All
 
TABLE:  "FUNCTION - POWER SPECTRAL DENSITY - USER"
   Name=UNIFPSD   Frequency=0   Value=1
   Name=UNIFPSD   Frequency=1   Value=1
 
TABLE:  "FUNCTION - RESPONSE SPECTRUM - USER"
   Name=UNIFRS   Period=0   Accel=1   FuncDamp=0.05
   Name=UNIFRS   Period=1   Accel=1
 
TABLE:  "FUNCTION - STEADY STATE - USER"
   Name=UNIFSS   Frequency=0   Value=1
   Name=UNIFSS   Frequency=1   Value=1
 
TABLE:  "FUNCTION - TIME HISTORY - USER"
   Name=RAMPTH   Time=0   Value=0
   Name=RAMPTH   Time=1   Value=1
   Name=RAMPTH   Time=4   Value=1
   Name=UNIFTH   Time=0   Value=1
   Name=UNIFTH   Time=1   Value=1
 
TABLE:  "GRID LINES"
   CoordSys=GLOBAL   AxisDir=X   GridID=A   XRYZCoord=-2.5   LineType=Primary   LineColor=Gray8Dark   Visible=Yes   BubbleLoc=End   AllVisible=Yes   BubbleSize=1.25
   CoordSys=GLOBAL   AxisDir=X   GridID=B   XRYZCoord=2.5   LineType=Primary   LineColor=Gray8Dark   Visible=Yes   BubbleLoc=End
   CoordSys=GLOBAL   AxisDir=Y   GridID=1   XRYZCoord=0   LineType=Primary   LineColor=Gray8Dark   Visible=Yes   BubbleLoc=Start
   CoordSys=GLOBAL   AxisDir=Z   GridID=Z1   XRYZCoord=0   LineType=Primary   LineColor=Gray8Dark   Visible=Yes   BubbleLoc=End
   CoordSys=GLOBAL   AxisDir=Z   GridID=Z2   XRYZCoord=3   LineType=Primary   LineColor=Gray8Dark   Visible=Yes   BubbleLoc=End
 
TABLE:  "GROUPS 1 - DEFINITIONS"
   GroupName=ALL   Selection=Yes   SectionCut=Yes   Steel=Yes   Concrete=Yes   Aluminum=Yes   ColdFormed=Yes   Stage=Yes   Bridge=Yes   AutoSeismic=No   AutoWind=No   SelDesSteel=No   SelDesAlum=No   SelDesCold=No   MassWeight=Yes   Color=Red
 
TABLE:  "HINGES DEF 02 - NONINTERACTING - DEFORM CONTROL - GENERAL"
 
TABLE:  "HINGES DEF 03 - NONINTERACTING - DEFORM CONTROL - FORCE-DEFORM"
 
TABLE:  "HINGES DEF 04 - NONINTERACTING - DEFORM CONTROL - ACCEPTANCE"
 
TABLE:  "JOINT ADDED MASS ASSIGNMENTS"
   Joint=2   CoordSys="Joint Local"   Mass1=11.723   Mass2=0   Mass3=0   MMI1=0   MMI2=0   MMI3=0
 
TABLE:  "JOINT CONSTRAINT ASSIGNMENTS"
   Joint=2   Constraint=DIAPH1
   Joint=4   Constraint=DIAPH1
 
TABLE:  "JOINT COORDINATES"
   Joint=1   CoordSys=GLOBAL   CoordType=Cartesian   XorR=-2.5   Y=0   Z=0   SpecialJt=No
   Joint=2   CoordSys=GLOBAL   CoordType=Cartesian   XorR=-2.5   Y=0   Z=3   SpecialJt=No
   Joint=3   CoordSys=GLOBAL   CoordType=Cartesian   XorR=2.5   Y=0   Z=0   SpecialJt=No
   Joint=4   CoordSys=GLOBAL   CoordType=Cartesian   XorR=2.5   Y=0   Z=3   SpecialJt=No
 
TABLE:  "JOINT LOADS - FORCE"
   Joint=2   LoadPat=E   CoordSys=GLOBAL   F1=100   F2=0   F3=0   M1=0   M2=0   M3=0
 
TABLE:  "JOINT PATTERN DEFINITIONS"
   Pattern=Default
 
TABLE:  "JOINT RESTRAINT ASSIGNMENTS"
   Joint=1   U1=Yes   U2=Yes   U3=Yes   R1=Yes   R2=Yes   R3=Yes
   Joint=3   U1=Yes   U2=Yes   U3=Yes   R1=Yes   R2=Yes   R3=Yes
 
TABLE:  "LOAD CASE DEFINITIONS"
   Case=G   Type=LinStatic   InitialCond=Zero   DesTypeOpt="Prog Det"   DesignType=DEAD   AutoType=None   RunCase=Yes
   Case=Q   Type=LinStatic   InitialCond=Zero   DesTypeOpt="Prog Det"   DesignType=LIVE   AutoType=None   RunCase=Yes
   Case=E   Type=LinStatic   InitialCond=Zero   DesTypeOpt="Prog Det"   DesignType=QUAKE   AutoType=None   RunCase=Yes
   Case=MODAL   Type=LinModal   InitialCond=Zero   DesTypeOpt="Prog Det"   DesignType=OTHER   AutoType=None   RunCase=Yes
   Case=PUSHGRAV   Type=NonStatic   InitialCond=Zero   DesTypeOpt="Prog Det"   DesignType=DEAD   AutoType=None   RunCase=Yes
   Case=PUSHOVER   Type=NonStatic   InitialCond=PUSHGRAV   DesTypeOpt="Prog Det"   DesignType=QUAKE   AutoType=None   RunCase=Yes
 
TABLE:  "LOAD PATTERN DEFINITIONS"
   LoadPat=G   DesignType=DEAD   SelfWtMult=0
   LoadPat=Q   DesignType=LIVE   SelfWtMult=0
   LoadPat=E   DesignType=QUAKE   SelfWtMult=0   AutoLoad=None
 
TABLE:  "MASSES 1 - MASS SOURCE"
   MassFrom=Elements
 
TABLE:  "MATERIAL PROPERTIES 01 - GENERAL"
   Material=B500c   Type=Rebar   SymType=Isotropic   TempDepend=No   Color=Blue   Notes="ASTM A36 added 1/3/2019 3:26:55 μμ"
   Material=CONC   Type=Concrete   SymType=Isotropic   TempDepend=No   Color=Blue   Notes="ASTM A36 added 1/3/2019 3:26:55 μμ"
 
TABLE:  "MATERIAL PROPERTIES 02 - BASIC MECHANICAL PROPERTIES"
   Material=B500c   UnitWeight=0   UnitMass=0   E1=200000000   G12=76923076.9230769   U12=0.3   A1=0
   Material=CONC   UnitWeight=0   UnitMass=0   E1=30000000   G12=15000000   U12=0   A1=0
 
TABLE:  "MATERIAL PROPERTIES 03B - CONCRETE DATA"
   Material=CONC   Fc=28000   LtWtConc=No   SSCurveOpt=Simple   SSHysType=Takeda   SFc=0.002   SCap=0.0035   FinalSlope=-0.1   FAngle=0   DAngle=0
 
TABLE:  "MATERIAL PROPERTIES 03E - REBAR DATA"
   Material=B500c   Fy=500000   Fu=625000   EffFy=575000   EffFu=5875000   SSCurveOpt=Simple   SSHysType=Kinematic   SHard=0.02   SCap=0.12   FinalSlope=-0.1   UseCTDef=No
 
TABLE:  "MATERIAL PROPERTIES 06 - DAMPING PARAMETERS"
   Material=B500c   ModalRatio=0   VisMass=0   VisStiff=0   HysMass=0   HysStiff=0
   Material=CONC   ModalRatio=0   VisMass=0   VisStiff=0   HysMass=0   HysStiff=0
 
TABLE:  "OPTIONS - COLORS - DISPLAY"
   DeviceType=Screen   Points=Yellow   LinesFrame=Yellow   LinesFrmExt=Yellow   LinesCable=Green   LinesTendon=Green   SpringLinks=Green   Restraints=Green   Releases=Green   Axes=Cyan   Text=Green   ShadowLines=Gray8Dark _
        GuideLines=Gray8Dark   Highlight=Red   Selection=White   AreaFillBot=Red   AreaFillTop=16744703   AreaFillSd=Red   AreaEdge=DarkRed   SolidF1=Red   SolidF2=Blue   SolidF3=Green   SolidF4=Yellow   SolidF5=White   SolidF6=Cyan _
        SolidEdge=DarkRed   Floor=Gray4   Background=Black   BGLowLeft=Black   BGLowRight=Black   BGUpRight=Black   Darkness=0.5
   DeviceType=Printer   Points=Gray8Dark   LinesFrame=Black   LinesFrmExt=Gray4   LinesCable=Black   LinesTendon=Black   SpringLinks=Gray8Dark   Restraints=Gray8Dark   Releases=Gray4   Axes=Black   Text=Black   ShadowLines=Gray4 _
        GuideLines=Gray4   Highlight=Black   Selection=Black   AreaFillBot=Gray4   AreaFillTop=Gray8Dark   AreaFillSd=Gray4   AreaEdge=Black   SolidF1=Gray1Light   SolidF2=Gray2   SolidF3=Gray3   SolidF4=Gray4   SolidF5=Gray5 _
        SolidF6=Gray6   SolidEdge=Black   Floor=Gray4   Background=White   BGLowLeft=White   BGLowRight=White   BGUpRight=White   Darkness=0.5
   DeviceType="Color Printer"   Points=Black   LinesFrame=7303023   LinesFrmExt=White   LinesCable=Green   LinesTendon=Green   SpringLinks=Green   Restraints=9408399   Releases=Green   Axes=Cyan   Text=Black   ShadowLines=Gray8Dark _
        GuideLines=10461087   Highlight=Red   Selection=10504778   AreaFillBot=16634568   AreaFillTop=14277119   AreaFillSd=16634568   AreaEdge=7303023   SolidF1=10122991   SolidF2=16756912   SolidF3=11599795   SolidF4=12713983 _
        SolidF5=White   SolidF6=16777128   SolidEdge=7303023   Floor=13619151   Background=White   BGLowLeft=White   BGLowRight=14671839   BGUpRight=White   Darkness=0.5
 
TABLE:  "OPTIONS - COLORS - OUTPUT"
   DeviceType=Screen   Contour1=13107400   Contour2=6553828   Contour3=Red   Contour4=16639   Contour5=Orange   Contour6=43775   Contour7=54527   Contour8=Yellow   Contour9=65408   Contour10=Green   Contour11=8453888   Contour12=Cyan _
        Contour13=16755200   Contour14=16733440   Contour15=Blue   Transpare=0.5   Ratio1=Cyan   Ratio2=Green   Ratio3=Yellow   Ratio4=Orange   Ratio5=Red   RatioNotD=Gray4   RatioNotC=Red   RatioVal1=0.5   RatioVal2=0.7   RatioVal3=0.9 _
        RatioVal4=1   DFillPos=Yellow   DFillNeg=Red   DFillRPos=Blue   DFillRNeg=Blue
   DeviceType=Printer   Contour1=Black   Contour2=3158064   Contour3=4210752   Contour4=5263440   Contour5=6316128   Contour6=7368816   Contour7=Gray8Dark   Contour8=Gray7   Contour9=Gray6   Contour10=Gray5   Contour11=Gray4 _
        Contour12=Gray3   Contour13=Gray2   Contour14=Gray1Light   Contour15=White   Transpare=0   Ratio1=Gray2   Ratio2=Gray4   Ratio3=Gray8Dark   Ratio4=4210752   Ratio5=Black   RatioNotD=Gray4   RatioNotC=Black   RatioVal1=0.5 _
        RatioVal2=0.7   RatioVal3=0.9   RatioVal4=1   DFillPos=Gray8Dark   DFillNeg=Gray8Dark   DFillRPos=4210752   DFillRNeg=4210752
   DeviceType="Color Printer"   Contour1=13107400   Contour2=6553828   Contour3=Red   Contour4=16639   Contour5=Orange   Contour6=43775   Contour7=54527   Contour8=Yellow   Contour9=65408   Contour10=Green   Contour11=8453888 _
        Contour12=Cyan   Contour13=16755200   Contour14=16733440   Contour15=Blue   Transpare=0.5   Ratio1=Cyan   Ratio2=Green   Ratio3=Yellow   Ratio4=Orange   Ratio5=Red   RatioNotD=Gray4   RatioNotC=Red   RatioVal1=0.5   RatioVal2=0.7 _
        RatioVal3=0.9   RatioVal4=1   DFillPos=Red   DFillNeg=Red   DFillRPos=Blue   DFillRNeg=Blue
 
TABLE:  "PREFERENCES - ALUMINUM DESIGN - AA-ASD 2000"
   THDesign=Envelopes   FrameType="Moment Frame"   SRatioLimit=1   MaxIter=1   LatFact=1.33333333333333   UseLatFact=No   Bridge=No
 
TABLE:  "PREFERENCES - COLD FORMED DESIGN - AISI-ASD96"
   THDesign=Envelopes   FrameType="Braced Frame"   SRatioLimit=1   MaxIter=1   OmegaBS=1.67   OmegaBUS=1.67   OmegaBLTB=1.67   OmegaVS=1.67   OmegaVNS=1.5   OmegaT=1.67   OmegaC=1.8
 
TABLE:  "PREFERENCES - CONCRETE DESIGN - ACI 318-05/IBC2003"
   THDesign=Envelopes   NumCurves=24   NumPoints=11   MinEccen=Yes   PatLLF=0.75   UFLimit=0.95   SeisCat=D   PhiT=0.9   PhiCTied=0.65   PhiCSpiral=0.7   PhiV=0.75   PhiVSeismic=0.6   PhiVJoint=0.85
 
TABLE:  "PREFERENCES - DIMENSIONAL"
   MergeTol=0.001   FineGrid=0.25   Nudge=0.25   SelectTol=3   SnapTol=12   SLineThick=1   PLineThick=4   MaxFont=8   MinFont=3   AutoZoom=10   ShrinkFact=70   TextFileLen=240
 
TABLE:  "PREFERENCES - STEEL DESIGN - AISC-LRFD93"
   THDesign=Envelopes   FrameType="Moment Frame"   PatLLF=0.75   SRatioLimit=0.95   MaxIter=1   PhiB=0.9   PhiC=0.85   PhiT=0.9   PhiV=0.9   PhiCA=0.9   CheckDefl=No   DLRat=120   SDLAndLLRat=120   LLRat=360   TotalRat=240   NetRat=240
 
TABLE:  "PROGRAM CONTROL"
   ProgramName=SAP2000   Version=14.2.4   CurrUnits="KN, m, C"   SteelCode=AISC-LRFD93   ConcCode="ACI 318-05/IBC2003"   AlumCode="AA-ASD 2000"   ColdCode=AISI-ASD96   BridgeCode="AASHTO LRFD 2007"   RegenHinge=Yes
 
TABLE:  "PROJECT INFORMATION"
   Item="Company Name"
   Item="Client Name"
   Item="Project Name"
   Item="Project Number"
   Item="Model Name"
   Item="Model Description"
   Item="Revision Number"
   Item="Frame Type"
   Item=Engineer
   Item=Checker
   Item=Supervisor
   Item="Issue Code"
   Item="Design Code"
 
TABLE:  "PUSHOVER PARAMETERS - AXIS DATA"
   PlotType=Force-Displ   ParamName=VDPO1   DisplMin=0   DisplMax=0.4   ForceMin=0   ForceMax=0   HorizLabel=Displacement   VertLabel="Base Reaction"
 
TABLE:  "PUSHOVER PARAMETERS - FORCE DISPLACEMENT"
   ParamName=VDPO1   CapColor=Green
 
TABLE:  "REBAR SIZES"
   RebarID=#2   Area=0.000032258   Diameter=0.00635
   RebarID=#3   Area=7.09675996154547E-05   Diameter=0.009525
   RebarID=#4   Area=1.29032001922727E-04   Diameter=0.0127
   RebarID=#5   Area=1.99999601538181E-04   Diameter=0.015875
   RebarID=#6   Area=2.83870398461819E-04   Diameter=0.01905
   RebarID=#7   Area=3.87096015381813E-04   Diameter=0.022225
   RebarID=#8   Area=5.09676413843632E-04   Diameter=0.0254
   RebarID=#9   Area=0.00064516   Diameter=2.86512005329132E-02
   RebarID=#10   Area=8.1935318769455E-04   Diameter=3.22579995155334E-02
   RebarID=#11   Area=1.00644956308365E-03   Diameter=3.58139991521835E-02
   RebarID=#14   Area=0.00145161   Diameter=4.30021989583969E-02
   RebarID=#18   Area=0.00258064   Diameter=5.73277992248535E-02
   RebarID=10M   Area=1.00000004162606E-04   Diameter=1.13000003604438E-02
   RebarID=15M   Area=2.00000008325212E-04   Diameter=1.60000002402959E-02
   RebarID=20M   Area=3.00000012487818E-04   Diameter=1.95000002928606E-02
   RebarID=25M   Area=5.00000020813031E-04   Diameter=2.52000011414055E-02
   RebarID=30M   Area=7.00000029138243E-04   Diameter=2.99000000675832E-02
   RebarID=35M   Area=1.00000004162606E-03   Diameter=3.57000012990997E-02
   RebarID=45M   Area=1.50000006243909E-03   Diameter=4.37000014192476E-02
   RebarID=55M   Area=2.50000010406515E-03   Diameter=0.056400002372922
   RebarID=6d   Area=2.83000004150781E-05   Diameter=6.00000009011096E-03
   RebarID=8d   Area=5.03000013308514E-05   Diameter=8.00000012014795E-03
   RebarID=10d   Area=7.85000032676458E-05   Diameter=1.00000001501849E-02
   RebarID=12d   Area=1.13000004703745E-04   Diameter=1.20000001802219E-02
   RebarID=14d   Area=1.54000006410413E-04   Diameter=1.40000002102589E-02
   RebarID=16d   Area=2.01000008366838E-04   Diameter=1.60000002402959E-02
   RebarID=20d   Area=3.14000013070583E-04   Diameter=2.00000003003699E-02
   RebarID=25d   Area=4.91000020438396E-04   Diameter=2.50000003754623E-02
   RebarID=26d   Area=5.31000022103439E-04   Diameter=2.60000003904808E-02
   RebarID=28d   Area=6.16000025641654E-04   Diameter=2.80000004205178E-02
   RebarID=N12   Area=1.13000004703745E-04   Diameter=1.20000001802219E-02
   RebarID=N16   Area=2.01000008366838E-04   Diameter=1.60000002402959E-02
   RebarID=N20   Area=3.14000013070583E-04   Diameter=2.00000003003699E-02
   RebarID=N24   Area=4.5200001881498E-04   Diameter=2.40000003604438E-02
   RebarID=N28   Area=6.16000025641654E-04   Diameter=2.80000004205178E-02
   RebarID=N32   Area=8.04000033467353E-04   Diameter=3.20000004805918E-02
   RebarID=N36   Area=1.02000004245858E-03   Diameter=3.60000005406658E-02
   RebarID=18d   Area=0.000254   Diameter=0.018
 
END TABLE DATA
